data_licoo2
_cell_length_a                      8.81565006
_cell_length_b                      8.81565006
_cell_length_c                      9.859925
_cell_angle_alpha                   90.0
_cell_angle_beta                    90.0
_cell_angle_gamma                   120.0
_symmetry_space_group_name_H-M      P1
loop_
_space_group_symop_id
_space_group_symop_operation_xyz
1 x,y,z
loop_
_atom_site_label
_atom_site_type_symbol
_atom_site_fract_x
_atom_site_fract_y
_atom_site_fract_z
X1 X 0.33077 0.33514 0.49921
X2 X 0.33761 0.33956 0.49922
X3 X 0.34436 0.34460 0.49904
X4 X 0.34902 0.34819 0.49847
X5 X 0.35568 0.35262 0.49737
X6 X 0.36233 0.35665 0.49600
X7 X 0.36894 0.36038 0.49443
X8 X 0.37552 0.36397 0.49277
X9 X 0.38208 0.36744 0.49103
X10 X 0.38861 0.37085 0.48925
X11 X 0.39514 0.37421 0.48744
X12 X 0.40166 0.37755 0.48562
X13 X 0.40818 0.38089 0.48379
X14 X 0.41470 0.38423 0.48197
X15 X 0.42122 0.38758 0.48016
X16 X 0.42775 0.39094 0.47837
X17 X 0.43429 0.39433 0.47658
X18 X 0.44083 0.39776 0.47482
X19 X 0.44739 0.40122 0.47308
X20 X 0.45395 0.40472 0.47137
X21 X 0.46053 0.40828 0.46969
X22 X 0.46711 0.41189 0.46804
X23 X 0.47372 0.41565 0.46647
X24 X 0.48033 0.41942 0.46491
X25 X 0.48695 0.42327 0.46339
X26 X 0.49358 0.42723 0.46193
X27 X 0.50021 0.43132 0.46054
X28 X 0.50685 0.43554 0.45923
X29 X 0.51349 0.44001 0.45806
X30 X 0.52010 0.44469 0.45703
X31 X 0.52665 0.44969 0.45619
X32 X 0.53317 0.45483 0.45547
X33 X 0.53917 0.46083 0.45547
X34 X 0.54517 0.46683 0.45547
X35 X 0.55031 0.47335 0.45619
X36 X 0.55531 0.47990 0.45703
X37 X 0.55999 0.48651 0.45806
X38 X 0.56446 0.49315 0.45923
X39 X 0.56868 0.49979 0.46054
X40 X 0.57277 0.50642 0.46193
X41 X 0.57673 0.51305 0.46339
X42 X 0.58058 0.51967 0.46491
X43 X 0.58435 0.52628 0.46647
X44 X 0.58811 0.53289 0.46804
X45 X 0.59172 0.53947 0.46969
X46 X 0.59528 0.54605 0.47137
X47 X 0.59878 0.55261 0.47308
X48 X 0.60224 0.55917 0.47482
X49 X 0.60567 0.56571 0.47658
X50 X 0.60906 0.57225 0.47837
X51 X 0.61242 0.57878 0.48016
X52 X 0.61577 0.58530 0.48197
X53 X 0.61911 0.59182 0.48379
X54 X 0.62245 0.59834 0.48562
X55 X 0.62579 0.60486 0.48744
X56 X 0.62915 0.61139 0.48925
X57 X 0.63256 0.61792 0.49103
X58 X 0.63603 0.62448 0.49277
X59 X 0.63962 0.63106 0.49443
X60 X 0.64335 0.63767 0.49600
X61 X 0.64738 0.64432 0.49737
X62 X 0.65181 0.65098 0.49847
X63 X 0.65540 0.65564 0.49904
X64 X 0.66044 0.66239 0.49922
X65 X 0.66486 0.66923 0.49921
Li1 Li 0.33333 0.33333 0.50000
Li2 Li 0.44444 0.22222 0.00000
Li3 Li 0.33333 0.66667 0.50000
Li4 Li 0.33333 0.00000 0.50000
Li5 Li 0.66667 0.33333 0.50000
Li6 Li 0.66667 0.66667 0.50000
Li7 Li 0.66667 0.00000 0.50000
Li8 Li 0.00000 0.33333 0.50000
Li9 Li 0.00000 0.66667 0.50000
Li10 Li 0.00000 0.00000 0.50000
Li11 Li 0.44444 0.55556 0.00000
Li12 Li 0.44444 0.88889 0.00000
Li13 Li 0.77778 0.22222 0.00000
Li14 Li 0.77778 0.55556 0.00000
Li15 Li 0.77778 0.88889 0.00000
Li16 Li 0.11111 0.22222 0.00000
Li17 Li 0.11111 0.55556 0.00000
Li18 Li 0.11111 0.88889 0.00000
O1 O 0.22222 0.11111 0.12856
O2 O 0.22222 0.11111 0.62856
O3 O 0.33333 0.33333 0.85523
O4 O 0.44444 0.22222 0.35523
O5 O 0.22222 0.44444 0.12856
O6 O 0.22222 0.77778 0.12856
O7 O 0.55556 0.11111 0.12856
O8 O 0.55556 0.44444 0.12856
O9 O 0.55556 0.77778 0.12856
O10 O 0.88889 0.11111 0.12856
O11 O 0.88889 0.44444 0.12856
O12 O 0.88889 0.77778 0.12856
O13 O 0.33333 0.66667 0.85523
O14 O 0.33333 0.00000 0.85523
O15 O 0.66667 0.33333 0.85523
O16 O 0.66667 0.66667 0.85523
O17 O 0.66667 0.00000 0.85523
O18 O 0.00000 0.33333 0.85523
O19 O 0.00000 0.66667 0.85523
O20 O 0.00000 0.00000 0.85523
O21 O 0.22222 0.44444 0.62856
O22 O 0.22222 0.77778 0.62856
O23 O 0.55556 0.11111 0.62856
O24 O 0.55556 0.44444 0.62856
O25 O 0.55556 0.77778 0.62856
O26 O 0.88889 0.11111 0.62856
O27 O 0.88889 0.44444 0.62856
O28 O 0.88889 0.77778 0.62856
O29 O 0.44444 0.55556 0.35523
O30 O 0.44444 0.88889 0.35523
O31 O 0.77778 0.22222 0.35523
O32 O 0.77778 0.55556 0.35523
O33 O 0.77778 0.88889 0.35523
O34 O 0.11111 0.22222 0.35523
O35 O 0.11111 0.55556 0.35523
O36 O 0.11111 0.88889 0.35523
Co1 Co 0.33333 0.33333 0.24230
Co2 Co 0.44444 0.22222 0.74230
Co3 Co 0.33333 0.66667 0.24230
Co4 Co 0.33333 0.00000 0.24230
Co5 Co 0.66667 0.33333 0.24230
Co6 Co 0.66667 0.66667 0.24230
Co7 Co 0.66667 0.00000 0.24230
Co8 Co 0.00000 0.33333 0.24230
Co9 Co 0.00000 0.66667 0.24230
Co10 Co 0.00000 0.00000 0.24230
Co11 Co 0.44444 0.55556 0.74230
Co12 Co 0.44444 0.88889 0.74230
Co13 Co 0.77778 0.22222 0.74230
Co14 Co 0.77778 0.55556 0.74230
Co15 Co 0.77778 0.88889 0.74230
Co16 Co 0.11111 0.22222 0.74230
Co17 Co 0.11111 0.55556 0.74230
Co18 Co 0.11111 0.88889 0.74230
#End of licoo2
