data_licoo2
_cell_length_a                      5.87710004
_cell_length_b                      5.87710004
_cell_length_c                      9.859925
_cell_angle_alpha                   90.0
_cell_angle_beta                    90.0
_cell_angle_gamma                   120.0
_symmetry_space_group_name_H-M      P1
loop_
_space_group_symop_id
_space_group_symop_operation_xyz
1 x,y,z
loop_
_atom_site_label
_atom_site_type_symbol
_atom_site_fract_x
_atom_site_fract_y
_atom_site_fract_z
X1 X 0.41673 0.58327 0.74925
X2 X 0.41244 0.57469 0.74883
X3 X 0.40736 0.56453 0.74768
X4 X 0.40232 0.55446 0.74634
X5 X 0.39738 0.54457 0.74469
X6 X 0.39243 0.53468 0.74303
X7 X 0.38751 0.52485 0.74128
X8 X 0.38261 0.51506 0.73948
X9 X 0.37772 0.50530 0.73763
X10 X 0.37285 0.49555 0.73577
X11 X 0.36797 0.48581 0.73389
X12 X 0.36310 0.47607 0.73201
X13 X 0.35823 0.46634 0.73013
X14 X 0.35336 0.45660 0.72825
X15 X 0.34848 0.44685 0.72638
X16 X 0.34360 0.43710 0.72452
X17 X 0.33872 0.42734 0.72267
X18 X 0.33384 0.41757 0.72083
X19 X 0.32895 0.40780 0.71900
X20 X 0.32406 0.39802 0.71718
X21 X 0.31917 0.38823 0.71537
X22 X 0.31427 0.37843 0.71358
X23 X 0.30936 0.36862 0.71180
X24 X 0.30445 0.35880 0.71004
X25 X 0.29954 0.34897 0.70829
X26 X 0.29462 0.33913 0.70655
X27 X 0.28971 0.32931 0.70480
X28 X 0.28480 0.31948 0.70304
X29 X 0.27995 0.30976 0.70114
X30 X 0.27515 0.30016 0.69907
X31 X 0.27071 0.29126 0.69630
X32 X 0.26690 0.28363 0.69266
X33 X 0.26393 0.27767 0.68826
X34 X 0.26169 0.27317 0.68342
X35 X 0.25994 0.26965 0.67837
X36 X 0.25882 0.26736 0.67314
X37 X 0.25770 0.26507 0.66790
X38 X 0.25680 0.26322 0.66262
X39 X 0.25607 0.26169 0.65731
X40 X 0.25548 0.26043 0.65198
X41 X 0.25500 0.25936 0.64665
X42 X 0.25463 0.25847 0.64130
X43 X 0.25435 0.25772 0.63595
X44 X 0.25416 0.25710 0.63059
X45 X 0.25407 0.25659 0.62523
X46 X 0.25409 0.25620 0.61987
X47 X 0.25439 0.25602 0.61451
X48 X 0.25470 0.25584 0.60915
X49 X 0.25520 0.25579 0.60379
X50 X 0.25593 0.25589 0.59844
X51 X 0.25696 0.25615 0.59310
X52 X 0.25836 0.25662 0.58778
X53 X 0.26022 0.25733 0.58250
X54 X 0.26263 0.25832 0.57728
X55 X 0.26568 0.25965 0.57215
X56 X 0.26942 0.26133 0.56715
X57 X 0.27388 0.26339 0.56230
X58 X 0.27953 0.26607 0.55780
X59 X 0.28517 0.26875 0.55329
X60 X 0.29135 0.27171 0.54897
X61 X 0.29796 0.27491 0.54483
X62 X 0.30493 0.27829 0.54085
X63 X 0.31218 0.28183 0.53700
X64 X 0.31965 0.28549 0.53327
X65 X 0.32728 0.28925 0.52962
X66 X 0.33504 0.29308 0.52605
X67 X 0.34291 0.29696 0.52254
X68 X 0.35085 0.30089 0.51908
X69 X 0.35889 0.30488 0.51568
X70 X 0.36693 0.30887 0.51227
X71 X 0.37501 0.31288 0.50890
X72 X 0.38312 0.31691 0.50554
X73 X 0.39125 0.32095 0.50219
X74 X 0.39939 0.32501 0.49885
X75 X 0.40754 0.32907 0.49552
X76 X 0.41570 0.33314 0.49220
X77 X 0.42387 0.33720 0.48887
X78 X 0.43202 0.34127 0.48554
X79 X 0.44016 0.34534 0.48221
X80 X 0.44829 0.34939 0.47886
X81 X 0.45639 0.35344 0.47550
X82 X 0.46447 0.35747 0.47212
X83 X 0.47250 0.36149 0.46871
X84 X 0.48054 0.36550 0.46531
X85 X 0.48848 0.36947 0.46184
X86 X 0.49634 0.37340 0.45833
X87 X 0.50411 0.37728 0.45476
X88 X 0.51174 0.38109 0.45112
X89 X 0.51921 0.38483 0.44738
X90 X 0.52648 0.38846 0.44354
X91 X 0.53347 0.39196 0.43958
X92 X 0.54014 0.39529 0.43546
X93 X 0.54639 0.39841 0.43117
X94 X 0.55215 0.40129 0.42670
X95 X 0.55791 0.40417 0.42223
X96 X 0.56258 0.40650 0.41744
X97 X 0.56658 0.40849 0.41248
X98 X 0.56992 0.41015 0.40740
X99 X 0.57266 0.41151 0.40222
X100 X 0.57487 0.41261 0.39698
X101 X 0.57662 0.41347 0.39169
X102 X 0.57800 0.41415 0.38637
X103 X 0.57909 0.41468 0.38103
X104 X 0.57994 0.41510 0.37568
X105 X 0.58060 0.41542 0.37033
X106 X 0.58127 0.41575 0.36497
X107 X 0.58166 0.41593 0.35961
X108 X 0.58196 0.41608 0.35424
X109 X 0.58220 0.41620 0.34888
X110 X 0.58239 0.41629 0.34351
X111 X 0.58254 0.41636 0.33815
X112 X 0.58267 0.41641 0.33278
X113 X 0.58276 0.41646 0.32741
X114 X 0.58284 0.41650 0.32205
X115 X 0.58291 0.41653 0.31668
X116 X 0.58297 0.41655 0.31131
X117 X 0.58302 0.41658 0.30594
X118 X 0.58306 0.41660 0.30058
X119 X 0.58309 0.41661 0.29521
X120 X 0.58312 0.41662 0.28984
X121 X 0.58314 0.41664 0.28448
X122 X 0.58316 0.41665 0.27911
X123 X 0.58318 0.41666 0.27374
X124 X 0.58320 0.41667 0.26838
X125 X 0.58321 0.41668 0.26301
X126 X 0.58323 0.41669 0.25764
X127 X 0.58325 0.41671 0.25228
X128 X 0.58327 0.41673 0.24925
Li1 Li 0.41667 0.58333 0.75000
Li2 Li 0.58333 0.41667 0.25000
Li3 Li 0.41667 0.08333 0.75000
Li4 Li 0.91667 0.58333 0.75000
Li5 Li 0.91667 0.08333 0.75000
Li6 Li 0.58333 0.91667 0.25000
Li7 Li 0.08333 0.41667 0.25000
Li8 Li 0.08333 0.91667 0.25000
O1 O 0.25000 0.25000 0.37856
O2 O 0.25000 0.25000 0.87856
O3 O 0.41667 0.58333 0.10524
O4 O 0.58333 0.41667 0.60523
O5 O 0.25000 0.75000 0.37856
O6 O 0.75000 0.25000 0.37856
O7 O 0.75000 0.75000 0.37856
O8 O 0.41667 0.08333 0.10524
O9 O 0.91667 0.58333 0.10524
O10 O 0.91667 0.08333 0.10524
O11 O 0.25000 0.75000 0.87856
O12 O 0.75000 0.25000 0.87856
O13 O 0.75000 0.75000 0.87856
O14 O 0.58333 0.91667 0.60523
O15 O 0.08333 0.41667 0.60523
O16 O 0.08333 0.91667 0.60523
Co1 Co 0.41667 0.58333 0.49230
Co2 Co 0.58333 0.41667 0.99230
Co3 Co 0.41667 0.08333 0.49230
Co4 Co 0.91667 0.58333 0.49230
Co5 Co 0.91667 0.08333 0.49230
Co6 Co 0.58333 0.91667 0.99230
Co7 Co 0.08333 0.41667 0.99230
Co8 Co 0.08333 0.91667 0.99230
#End of licoo2
