data_licoo2
_cell_length_a                      2.93855002
_cell_length_b                      2.93855002
_cell_length_c                      9.859925
_cell_angle_alpha                   90.0
_cell_angle_beta                    90.0
_cell_angle_gamma                   120.0
_symmetry_space_group_name_H-M      None
loop_
_space_group_symop_id
_space_group_symop_operation_xyz
1 x,y,z
2 x-y,x,1/2+z
3 -y,x-y,z
4 -x,-y,1/2+z
5 -x+y,-x,z
6 y,-x+y,1/2+z
7 y,x,1/2+z
8 x,x-y,z
9 x-y,-y,1/2+z
10 -y,-x,z
11 -x,-x+y,1/2+z
12 -x+y,y,z
loop_
_atom_site_label
_atom_site_type_symbol
_atom_site_fract_x
_atom_site_fract_y
_atom_site_fract_z
X1 X 0.32566 0.67208 0.75741
X2 X 0.34616 0.68534 0.75743
X3 X 0.36641 0.70047 0.75725
X4 X 0.38039 0.71124 0.75668
X5 X 0.40037 0.72453 0.75558
X6 X 0.42033 0.73661 0.75421
X7 X 0.44016 0.74780 0.75264
X8 X 0.45991 0.75857 0.75097
X9 X 0.47957 0.76900 0.74924
X10 X 0.49918 0.77922 0.74745
X11 X 0.51875 0.78931 0.74564
X12 X 0.53831 0.79932 0.74382
X13 X 0.55787 0.80934 0.74200
X14 X 0.57743 0.81935 0.74018
X15 X 0.59700 0.82940 0.73837
X16 X 0.61659 0.83950 0.73657
X17 X 0.63620 0.84967 0.73479
X18 X 0.65583 0.85994 0.73303
X19 X 0.67550 0.87032 0.73129
X20 X 0.69519 0.88083 0.72958
X21 X 0.71491 0.89149 0.72790
X22 X 0.73467 0.90234 0.72625
X23 X 0.75450 0.91363 0.72468
X24 X 0.77432 0.92492 0.72312
X25 X 0.79418 0.93648 0.72160
X26 X 0.81406 0.94836 0.72014
X27 X 0.83397 0.96061 0.71875
X28 X 0.85389 0.97327 0.71744
X29 X 0.87379 0.98668 0.71627
X30 X 0.89362 0.00074 0.71523
X31 X 0.91329 0.01572 0.71440
X32 X 0.93283 0.03115 0.71368
X33 X 0.95084 0.04916 0.71368
X34 X 0.32792 0.67434 0.75741
X35 X 0.33346 0.66654 0.75746
X36 X 0.32488 0.64938 0.75703
X37 X 0.31472 0.62906 0.75589
X38 X 0.30465 0.60893 0.75455
X39 X 0.29475 0.58915 0.75290
X40 X 0.28485 0.56937 0.75124
X41 X 0.27502 0.54971 0.74949
X42 X 0.26522 0.53013 0.74769
X43 X 0.25545 0.51060 0.74584
X44 X 0.24569 0.49110 0.74398
X45 X 0.23594 0.47162 0.74210
X46 X 0.22620 0.45215 0.74022
X47 X 0.21646 0.43267 0.73833
X48 X 0.20672 0.41320 0.73646
X49 X 0.19697 0.39371 0.73459
X50 X 0.18721 0.37419 0.73273
X51 X 0.17745 0.35468 0.73088
X52 X 0.16768 0.33514 0.72904
X53 X 0.15791 0.31560 0.72721
X54 X 0.14812 0.29603 0.72539
X55 X 0.13833 0.27645 0.72358
X56 X 0.12853 0.25685 0.72179
X57 X 0.11873 0.23723 0.72001
X58 X 0.10891 0.21760 0.71825
X59 X 0.09908 0.19794 0.71650
X60 X 0.08925 0.17827 0.71476
X61 X 0.07943 0.15861 0.71300
X62 X 0.06961 0.13896 0.71125
X63 X 0.05989 0.11952 0.70935
X64 X 0.05031 0.10033 0.70728
X65 X 0.04141 0.08252 0.70451
X66 X 0.03380 0.06726 0.70087
X67 X 0.02785 0.05534 0.69647
X68 X 0.02338 0.04634 0.69163
X69 X 0.01989 0.03930 0.68658
X70 X 0.01764 0.03472 0.68134
X71 X 0.01539 0.03014 0.67611
X72 X 0.01360 0.02643 0.67083
X73 X 0.01214 0.02339 0.66552
X74 X 0.01096 0.02085 0.66019
X75 X 0.01001 0.01873 0.65485
X76 X 0.00926 0.01694 0.64951
X77 X 0.00870 0.01544 0.64415
X78 X 0.00832 0.01420 0.63880
X79 X 0.00814 0.01319 0.63344
X80 X 0.00817 0.01239 0.62808
X81 X 0.00879 0.01204 0.62271
X82 X 0.00940 0.01169 0.61735
X83 X 0.01040 0.01159 0.61200
X84 X 0.01186 0.01178 0.60664
X85 X 0.01392 0.01230 0.60131
X86 X 0.01672 0.01324 0.59599
X87 X 0.02045 0.01465 0.59071
X88 X 0.02527 0.01664 0.58549
X89 X 0.03136 0.01929 0.58036
X90 X 0.03884 0.02266 0.57536
X91 X 0.04777 0.02678 0.57051
X92 X 0.05906 0.03213 0.56600
X93 X 0.07034 0.03749 0.56150
X94 X 0.08270 0.04342 0.55718
X95 X 0.09593 0.04981 0.55304
X96 X 0.10987 0.05659 0.54906
X97 X 0.12436 0.06367 0.54521
X98 X 0.13929 0.07099 0.54148
X99 X 0.15456 0.07850 0.53783
X100 X 0.17009 0.08615 0.53426
X101 X 0.18581 0.09392 0.53075
X102 X 0.20170 0.10178 0.52729
X103 X 0.21778 0.10976 0.52389
X104 X 0.23386 0.11774 0.52048
X105 X 0.25002 0.12576 0.51710
X106 X 0.26623 0.13382 0.51374
X107 X 0.28249 0.14191 0.51040
X108 X 0.29878 0.15002 0.50706
X109 X 0.31509 0.15814 0.50373
X110 X 0.33141 0.16627 0.50041
X111 X 0.34773 0.17441 0.49708
X112 X 0.36404 0.18254 0.49375
X113 X 0.38032 0.19067 0.49041
X114 X 0.39658 0.19878 0.48707
X115 X 0.41279 0.20688 0.48371
X116 X 0.42894 0.21494 0.48033
X117 X 0.44501 0.22297 0.47692
X118 X 0.46108 0.23100 0.47351
X119 X 0.47696 0.23894 0.47005
X120 X 0.49269 0.24679 0.46654
X121 X 0.50821 0.25455 0.46297
X122 X 0.52348 0.26219 0.45932
X123 X 0.53842 0.26966 0.45559
X124 X 0.55295 0.27692 0.45175
X125 X 0.56695 0.28392 0.44778
X126 X 0.58028 0.29058 0.44366
X127 X 0.59279 0.29683 0.43938
X128 X 0.60431 0.30258 0.43491
X129 X 0.61583 0.30834 0.43044
X130 X 0.62516 0.31300 0.42565
X131 X 0.63316 0.31698 0.42069
X132 X 0.63985 0.32031 0.41561
X133 X 0.64533 0.32303 0.41043
X134 X 0.64974 0.32521 0.40519
X135 X 0.65324 0.32694 0.39990
X136 X 0.65601 0.32831 0.39458
X137 X 0.65818 0.32937 0.38924
X138 X 0.65987 0.33020 0.38389
X139 X 0.66120 0.33085 0.37854
X140 X 0.66253 0.33149 0.37318
X141 X 0.66332 0.33187 0.36782
X142 X 0.66393 0.33216 0.36245
X143 X 0.66441 0.33239 0.35709
X144 X 0.66479 0.33257 0.35172
X145 X 0.66509 0.33271 0.34635
X146 X 0.66533 0.33283 0.34099
X147 X 0.66553 0.33292 0.33562
X148 X 0.66569 0.33299 0.33025
X149 X 0.66582 0.33305 0.32489
X150 X 0.66593 0.33311 0.31952
X151 X 0.66604 0.33316 0.31415
X152 X 0.66611 0.33319 0.30879
X153 X 0.66618 0.33322 0.30342
X154 X 0.66623 0.33325 0.29805
X155 X 0.66628 0.33327 0.29268
X156 X 0.66632 0.33329 0.28732
X157 X 0.66636 0.33332 0.28195
X158 X 0.66640 0.33334 0.27658
X159 X 0.66643 0.33336 0.27122
X160 X 0.66646 0.33338 0.26585
X161 X 0.66650 0.33341 0.26048
X162 X 0.66654 0.33346 0.25746
Li1 Li 0.33333 0.66667 0.75821
O1 O 0.00000 0.00000 0.38677
O2 O 0.33333 0.66667 0.11344
Co1 Co 0.33333 0.66667 0.50051
#End of licoo2
