data_li7la3zr2o12
_cell_length_a                      13.23607
_cell_length_b                      13.23607
_cell_length_c                      12.701706
_cell_angle_alpha                   90.0
_cell_angle_beta                    90.0
_cell_angle_gamma                   90.0
_symmetry_space_group_name_H-M      P1
loop_
_space_group_symop_id
_space_group_symop_operation_xyz
1 x,y,z
loop_
_atom_site_label
_atom_site_type_symbol
_atom_site_fract_x
_atom_site_fract_y
_atom_site_fract_z
X1 X 0.44882 0.57759 0.46688
X2 X 0.44708 0.58116 0.46728
X3 X 0.44537 0.58477 0.46748
X4 X 0.44358 0.58905 0.46707
X5 X 0.44451 0.58676 0.46735
X6 X 0.44614 0.58311 0.46744
X7 X 0.44785 0.57951 0.46721
X8 X 0.44964 0.57598 0.46659
X9 X 0.45148 0.57253 0.46574
X10 X 0.45335 0.56913 0.46471
X11 X 0.45525 0.56579 0.46356
X12 X 0.45720 0.56253 0.46228
X13 X 0.45915 0.55926 0.46101
X14 X 0.46113 0.55602 0.45970
X15 X 0.46314 0.55281 0.45838
X16 X 0.46518 0.54961 0.45705
X17 X 0.46724 0.54642 0.45574
X18 X 0.46934 0.54325 0.45446
X19 X 0.47147 0.54008 0.45323
X20 X 0.47362 0.53691 0.45205
X21 X 0.47582 0.53373 0.45095
X22 X 0.47804 0.53056 0.44994
X23 X 0.48031 0.52738 0.44904
X24 X 0.48261 0.52420 0.44827
X25 X 0.48496 0.52101 0.44766
X26 X 0.48734 0.51783 0.44722
X27 X 0.48976 0.51466 0.44699
X28 X 0.49223 0.51151 0.44698
X29 X 0.49471 0.50839 0.44725
X30 X 0.49721 0.50529 0.44766
X31 X 0.49972 0.50232 0.44863
X32 X 0.50222 0.49935 0.44961
X33 X 0.50469 0.49656 0.45113
X34 X 0.50713 0.49385 0.45284
X35 X 0.50953 0.49123 0.45474
X36 X 0.51189 0.48870 0.45684
X37 X 0.51420 0.48627 0.45910
X38 X 0.51646 0.48393 0.46152
X39 X 0.51868 0.48166 0.46406
X40 X 0.52084 0.47946 0.46671
X41 X 0.52296 0.47733 0.46945
X42 X 0.52504 0.47525 0.47228
X43 X 0.52712 0.47317 0.47510
X44 X 0.52911 0.47118 0.47806
X45 X 0.53105 0.46922 0.48107
X46 X 0.53296 0.46728 0.48413
X47 X 0.53482 0.46536 0.48722
X48 X 0.53664 0.46345 0.49035
X49 X 0.53842 0.46154 0.49351
X50 X 0.54015 0.45962 0.49669
X51 X 0.54182 0.45769 0.49989
X52 X 0.54344 0.45574 0.50311
X53 X 0.54501 0.45375 0.50634
X54 X 0.54651 0.45173 0.50957
X55 X 0.54800 0.44970 0.51281
X56 X 0.54937 0.44759 0.51605
X57 X 0.55064 0.44541 0.51928
X58 X 0.55181 0.44318 0.52251
X59 X 0.55288 0.44091 0.52576
X60 X 0.55349 0.43942 0.52792
X61 X 0.55391 0.43764 0.53122
X62 X 0.55377 0.43567 0.53485
X63 X 0.55299 0.43363 0.53834
X64 X 0.55190 0.43157 0.54172
Li1 Li 0.44965 0.57816 0.46543
Li2 Li 0.03160 0.82114 0.21543
Li3 Li 0.28862 0.90309 0.46543
Li4 Li 0.70667 0.66011 0.21543
Li5 Li 0.44965 0.40309 0.35372
Li6 Li 0.53160 0.66011 0.10372
Li7 Li 0.28862 0.07816 0.35372
Li8 Li 0.20667 0.82114 0.10372
Li9 Li 0.78862 0.90309 0.35372
Li10 Li 0.20667 0.66011 0.60372
Li11 Li 0.94965 0.57816 0.35372
Li12 Li 0.53160 0.82114 0.60372
Li13 Li 0.28862 0.57816 0.96543
Li14 Li 0.20667 0.32114 0.21543
Li15 Li 0.44965 0.90309 0.96543
Li16 Li 0.53160 0.16011 0.21543
Li17 Li 0.94965 0.07816 0.96543
Li18 Li 0.53160 0.32114 0.71543
Li19 Li 0.78862 0.40309 0.96543
Li20 Li 0.20667 0.16011 0.71543
Li21 Li 0.94965 0.90309 0.85372
Li22 Li 0.03160 0.16011 0.60372
Li23 Li 0.78862 0.57816 0.85372
Li24 Li 0.70667 0.32114 0.60372
Li25 Li 0.28862 0.40309 0.85372
Li26 Li 0.70667 0.16011 0.10372
Li27 Li 0.44965 0.07816 0.85372
Li28 Li 0.03160 0.32114 0.10372
Li29 Li 0.78862 0.07816 0.46543
Li30 Li 0.70667 0.82114 0.71543
Li31 Li 0.94965 0.40309 0.46543
Li32 Li 0.03160 0.66011 0.71543
Li33 Li 0.55035 0.92184 0.78457
Li34 Li 0.68793 0.92184 0.53457
Li35 Li 0.18793 0.55942 0.78457
Li36 Li 0.05035 0.55942 0.53457
Li37 Li 0.55035 0.05942 0.03457
Li38 Li 0.18793 0.42184 0.03457
Li39 Li 0.68793 0.55942 0.03457
Li40 Li 0.55035 0.55942 0.28457
Li41 Li 0.05035 0.92184 0.03457
Li42 Li 0.18793 0.92184 0.28457
Li43 Li 0.55035 0.42184 0.53457
Li44 Li 0.18793 0.05942 0.53457
Li45 Li 0.05035 0.42184 0.28457
Li46 Li 0.68793 0.05942 0.28457
Li47 Li 0.05035 0.05942 0.78457
Li48 Li 0.68793 0.42184 0.78457
Li49 Li 0.36914 0.74063 0.53457
Li50 Li 0.86914 0.74063 0.28457
Li51 Li 0.36914 0.24063 0.28457
Li52 Li 0.36914 0.74063 0.03457
Li53 Li 0.86914 0.24063 0.03457
Li54 Li 0.36914 0.24063 0.78457
Li55 Li 0.86914 0.74063 0.78457
Li56 Li 0.86914 0.24063 0.53457
O1 O 0.40375 0.93514 0.81328
O2 O 0.67462 0.77524 0.56328
O3 O 0.33452 0.54611 0.81328
O4 O 0.06365 0.70601 0.56328
O5 O 0.40375 0.04611 0.00587
O6 O 0.17462 0.70601 0.75587
O7 O 0.33452 0.43514 0.00587
O8 O 0.56365 0.77524 0.75587
O9 O 0.83452 0.54611 0.00587
O10 O 0.56365 0.70601 0.25587
O11 O 0.90375 0.93514 0.00587
O12 O 0.17462 0.77524 0.25587
O13 O 0.33452 0.93514 0.31328
O14 O 0.56365 0.27524 0.56328
O15 O 0.40375 0.54611 0.31328
O16 O 0.17462 0.20601 0.56328
O17 O 0.90375 0.43514 0.31328
O18 O 0.17462 0.27524 0.06328
O19 O 0.83452 0.04611 0.31328
O20 O 0.56365 0.20601 0.06328
O21 O 0.90375 0.54611 0.50587
O22 O 0.67462 0.20601 0.25587
O23 O 0.83452 0.93514 0.50587
O24 O 0.06365 0.27524 0.25587
O25 O 0.33452 0.04611 0.50587
O26 O 0.06365 0.20601 0.75587
O27 O 0.40375 0.43514 0.50587
O28 O 0.67462 0.27524 0.75587
O29 O 0.83452 0.43514 0.81328
O30 O 0.06365 0.77524 0.06328
O31 O 0.90375 0.04611 0.81328
O32 O 0.67462 0.70601 0.06328
O33 O 0.42410 0.13818 0.69390
O34 O 0.47158 0.79559 0.44390
O35 O 0.31417 0.34307 0.69390
O36 O 0.26669 0.68566 0.44390
O37 O 0.42410 0.84307 0.12524
O38 O 0.97158 0.68566 0.87524
O39 O 0.31417 0.63818 0.12524
O40 O 0.76669 0.79559 0.87524
O41 O 0.81417 0.34307 0.12524
O42 O 0.76669 0.68566 0.37524
O43 O 0.92410 0.13818 0.12524
O44 O 0.97158 0.79559 0.37524
O45 O 0.31417 0.13818 0.19390
O46 O 0.76669 0.29559 0.44390
O47 O 0.42410 0.34307 0.19390
O48 O 0.97158 0.18566 0.44390
O49 O 0.92410 0.63818 0.19390
O50 O 0.97158 0.29559 0.94390
O51 O 0.81417 0.84307 0.19390
O52 O 0.76669 0.18566 0.94390
O53 O 0.92410 0.34307 0.62524
O54 O 0.47158 0.18566 0.37524
O55 O 0.81417 0.13818 0.62524
O56 O 0.26669 0.29559 0.37524
O57 O 0.31417 0.84307 0.62524
O58 O 0.26669 0.18566 0.87524
O59 O 0.42410 0.63818 0.62524
O60 O 0.47158 0.29559 0.87524
O61 O 0.81417 0.63818 0.69390
O62 O 0.26669 0.79559 0.94390
O63 O 0.92410 0.84307 0.69390
O64 O 0.47158 0.68566 0.94390
O65 O 0.51996 0.96385 0.60581
O66 O 0.64591 0.89145 0.35581
O67 O 0.21831 0.51740 0.60581
O68 O 0.09236 0.58980 0.35581
O69 O 0.51996 0.01740 0.21334
O70 O 0.14591 0.58980 0.96334
O71 O 0.21831 0.46385 0.21334
O72 O 0.59236 0.89145 0.96334
O73 O 0.71831 0.51740 0.21334
O74 O 0.59236 0.58980 0.46334
O75 O 0.01996 0.96385 0.21334
O76 O 0.14591 0.89145 0.46334
O77 O 0.21831 0.96385 0.10581
O78 O 0.59236 0.39145 0.35581
O79 O 0.51996 0.51740 0.10581
O80 O 0.14591 0.08980 0.35581
O81 O 0.01996 0.46385 0.10581
O82 O 0.14591 0.39145 0.85581
O83 O 0.71831 0.01740 0.10581
O84 O 0.59236 0.08980 0.85581
O85 O 0.01996 0.51740 0.71334
O86 O 0.64591 0.08980 0.46334
O87 O 0.71831 0.96385 0.71334
O88 O 0.09236 0.39145 0.46334
O89 O 0.21831 0.01740 0.71334
O90 O 0.09236 0.08980 0.96334
O91 O 0.51996 0.46385 0.71334
O92 O 0.64591 0.39145 0.96334
O93 O 0.71831 0.46385 0.60581
O94 O 0.09236 0.89145 0.85581
O95 O 0.01996 0.01740 0.60581
O96 O 0.64591 0.58980 0.85581
Zr1 Zr 0.36914 0.99063 0.65957
Zr2 Zr 0.61914 0.74063 0.40957
Zr3 Zr 0.36914 0.49063 0.65957
Zr4 Zr 0.11914 0.74063 0.40957
Zr5 Zr 0.36914 0.99063 0.15957
Zr6 Zr 0.11914 0.74063 0.90957
Zr7 Zr 0.36914 0.49063 0.15957
Zr8 Zr 0.61914 0.74063 0.90957
Zr9 Zr 0.86914 0.49063 0.15957
Zr10 Zr 0.86914 0.99063 0.15957
Zr11 Zr 0.61914 0.24063 0.40957
Zr12 Zr 0.11914 0.24063 0.40957
Zr13 Zr 0.11914 0.24063 0.90957
Zr14 Zr 0.61914 0.24063 0.90957
Zr15 Zr 0.86914 0.49063 0.65957
Zr16 Zr 0.86914 0.99063 0.65957
La1 La 0.49651 0.99063 0.40957
La2 La 0.61914 0.86800 0.15957
La3 La 0.24177 0.49063 0.40957
La4 La 0.11914 0.61326 0.15957
La5 La 0.74177 0.49063 0.40957
La6 La 0.61914 0.61326 0.65957
La7 La 0.99651 0.99063 0.40957
La8 La 0.11914 0.86800 0.65957
La9 La 0.24177 0.99063 0.90957
La10 La 0.61914 0.36800 0.15957
La11 La 0.49651 0.49063 0.90957
La12 La 0.11914 0.11326 0.15957
La13 La 0.99651 0.49063 0.90957
La14 La 0.11914 0.36800 0.65957
La15 La 0.74177 0.99063 0.90957
La16 La 0.61914 0.11326 0.65957
La17 La 0.36914 0.74063 0.78457
La18 La 0.86914 0.74063 0.53457
La19 La 0.36914 0.24063 0.03457
La20 La 0.86914 0.74063 0.03457
La21 La 0.36914 0.74063 0.28457
La22 La 0.36914 0.24063 0.53457
La23 La 0.86914 0.24063 0.28457
La24 La 0.86914 0.24063 0.78457
#End of li7la3zr2o12
