data_findsym-output
_cell_length_a                      10.279498
_cell_length_b                      10.279498
_cell_length_c                      10.279498
_cell_angle_alpha                   90.0
_cell_angle_beta                    90.0
_cell_angle_gamma                   90.0
_symmetry_space_group_name_H-M      P1
loop_
_space_group_symop_id
_space_group_symop_operation_xyz
1 x,y,z
loop_
_atom_site_label
_atom_site_type_symbol
_atom_site_fract_x
_atom_site_fract_y
_atom_site_fract_z
X1 X 0.37848 0.24997 0.36343
X2 X 0.37848 0.24633 0.35979
X3 X 0.37843 0.24269 0.35615
X4 X 0.37836 0.23905 0.35251
X5 X 0.37828 0.23541 0.34888
X6 X 0.37817 0.23177 0.34524
X7 X 0.37803 0.22813 0.34160
X8 X 0.37786 0.22450 0.33796
X9 X 0.37766 0.22086 0.33432
X10 X 0.37744 0.21722 0.33069
X11 X 0.37721 0.21358 0.32705
X12 X 0.37691 0.20995 0.32342
X13 X 0.37658 0.20632 0.31979
X14 X 0.37620 0.20269 0.31616
X15 X 0.37577 0.19906 0.31253
X16 X 0.37529 0.19543 0.30891
X17 X 0.37475 0.19181 0.30529
X18 X 0.37412 0.18820 0.30167
X19 X 0.37339 0.18459 0.29807
X20 X 0.37263 0.18099 0.29447
X21 X 0.37158 0.17743 0.29091
X22 X 0.37021 0.17392 0.28740
X23 X 0.36906 0.17222 0.28571
X24 X 0.36434 0.17034 0.28383
X25 X 0.35965 0.16883 0.28231
X26 X 0.35490 0.16744 0.28092
X27 X 0.35011 0.16611 0.27958
X28 X 0.34528 0.16485 0.27832
X29 X 0.34046 0.16358 0.27705
X30 X 0.33562 0.16234 0.27581
X31 X 0.33077 0.16111 0.27458
X32 X 0.32591 0.15990 0.27337
X33 X 0.32106 0.15870 0.27216
X34 X 0.31619 0.15751 0.27097
X35 X 0.31133 0.15632 0.26978
X36 X 0.30645 0.15515 0.26861
X37 X 0.30157 0.15399 0.26745
X38 X 0.29667 0.15288 0.26634
X39 X 0.29169 0.15196 0.26542
X40 X 0.28671 0.15104 0.26450
X41 X 0.28167 0.15029 0.26375
X42 X 0.27657 0.14979 0.26325
X43 X 0.27143 0.14963 0.26309
X44 X 0.26629 0.14989 0.26335
X45 X 0.26124 0.15059 0.26405
X46 X 0.25633 0.15169 0.26515
X47 X 0.25160 0.15311 0.26657
X48 X 0.24702 0.15479 0.26824
X49 X 0.24260 0.15665 0.27010
X50 X 0.23839 0.15874 0.27219
X51 X 0.23417 0.16083 0.27428
X52 X 0.23006 0.16302 0.27647
X53 X 0.22604 0.16529 0.27874
X54 X 0.22209 0.16763 0.28108
X55 X 0.21822 0.17003 0.28348
X56 X 0.21441 0.17248 0.28593
X57 X 0.21066 0.17497 0.28842
X58 X 0.20696 0.17750 0.29096
X59 X 0.20332 0.18008 0.29353
X60 X 0.19973 0.18269 0.29614
X61 X 0.19622 0.18535 0.29880
X62 X 0.19272 0.18802 0.30147
X63 X 0.18925 0.19071 0.30416
X64 X 0.18582 0.19342 0.30687
X65 X 0.18243 0.19616 0.30961
X66 X 0.17908 0.19892 0.31237
X67 X 0.17575 0.20170 0.31515
X68 X 0.17244 0.20449 0.31794
X69 X 0.16920 0.20731 0.32077
X70 X 0.16595 0.21014 0.32359
X71 X 0.16276 0.21300 0.32645
X72 X 0.15958 0.21586 0.32931
X73 X 0.15642 0.21873 0.33218
X74 X 0.15328 0.22162 0.33507
X75 X 0.15017 0.22452 0.33797
X76 X 0.14707 0.22743 0.34088
X77 X 0.14400 0.23034 0.34379
X78 X 0.14092 0.23326 0.34671
X79 X 0.13789 0.23620 0.34965
X80 X 0.13488 0.23916 0.35261
X81 X 0.13190 0.24213 0.35558
X82 X 0.12897 0.24512 0.35857
X83 X 0.12612 0.24815 0.36160
X84 X 0.12453 0.25000 0.36345
X85 X 0.12611 0.25185 0.36530
X86 X 0.12896 0.25488 0.36833
X87 X 0.13190 0.25787 0.37132
X88 X 0.13487 0.26084 0.37429
X89 X 0.13788 0.26379 0.37724
X90 X 0.14092 0.26673 0.38018
X91 X 0.14399 0.26965 0.38310
X92 X 0.14707 0.27257 0.38602
X93 X 0.15016 0.27548 0.38893
X94 X 0.15328 0.27838 0.39183
X95 X 0.15642 0.28126 0.39471
X96 X 0.15958 0.28414 0.39759
X97 X 0.16275 0.28700 0.40045
X98 X 0.16595 0.28986 0.40331
X99 X 0.16919 0.29268 0.40613
X100 X 0.17244 0.29551 0.40896
X101 X 0.17575 0.29830 0.41175
X102 X 0.17907 0.30108 0.41453
X103 X 0.18243 0.30384 0.41729
X104 X 0.18582 0.30658 0.42002
X105 X 0.18925 0.30929 0.42274
X106 X 0.19271 0.31198 0.42543
X107 X 0.19622 0.31465 0.42810
X108 X 0.19973 0.31731 0.43076
X109 X 0.20332 0.31992 0.43337
X110 X 0.20696 0.32249 0.43594
X111 X 0.21065 0.32503 0.43848
X112 X 0.21440 0.32752 0.44097
X113 X 0.21821 0.32997 0.44342
X114 X 0.22209 0.33237 0.44582
X115 X 0.22603 0.33471 0.44815
X116 X 0.23006 0.33698 0.45042
X117 X 0.23417 0.33917 0.45261
X118 X 0.23838 0.34126 0.45471
X119 X 0.24259 0.34335 0.45680
X120 X 0.24702 0.34522 0.45866
X121 X 0.25159 0.34689 0.46033
X122 X 0.25633 0.34832 0.46176
X123 X 0.26123 0.34942 0.46286
X124 X 0.26628 0.35012 0.46356
X125 X 0.27142 0.35038 0.46382
X126 X 0.27656 0.35023 0.46366
X127 X 0.28166 0.34973 0.46317
X128 X 0.28670 0.34899 0.46242
X129 X 0.29168 0.34807 0.46150
X130 X 0.29666 0.34716 0.46059
X131 X 0.30156 0.34604 0.45947
X132 X 0.30645 0.34489 0.45832
X133 X 0.31132 0.34372 0.45714
X134 X 0.31619 0.34253 0.45596
X135 X 0.32105 0.34134 0.45476
X136 X 0.32591 0.34014 0.45356
X137 X 0.33077 0.33893 0.45235
X138 X 0.33561 0.33771 0.45113
X139 X 0.34045 0.33647 0.44989
X140 X 0.34528 0.33521 0.44862
X141 X 0.35011 0.33395 0.44736
X142 X 0.35491 0.33262 0.44603
X143 X 0.35966 0.33124 0.44464
X144 X 0.36435 0.32973 0.44313
X145 X 0.36910 0.32787 0.44126
X146 X 0.37013 0.33046 0.43984
X147 X 0.37198 0.33483 0.43783
X148 X 0.37382 0.33925 0.43596
X149 X 0.37565 0.34369 0.43410
X150 X 0.37743 0.34817 0.43229
X151 X 0.37916 0.35268 0.43050
X152 X 0.38081 0.35722 0.42874
X153 X 0.38238 0.36180 0.42700
X154 X 0.38385 0.36643 0.42528
X155 X 0.38522 0.37110 0.42359
X156 X 0.38647 0.37581 0.42193
X157 X 0.38748 0.38060 0.42034
X158 X 0.38849 0.38539 0.41876
X159 X 0.38937 0.39022 0.41721
X160 X 0.39012 0.39509 0.41572
X161 X 0.39073 0.39999 0.41427
X162 X 0.39123 0.40492 0.41288
X163 X 0.39160 0.40988 0.41156
X164 X 0.39188 0.41487 0.41030
X165 X 0.39210 0.41987 0.40911
X166 X 0.39227 0.42490 0.40800
X167 X 0.39246 0.42994 0.40698
X168 X 0.39270 0.43500 0.40606
X169 X 0.39308 0.44007 0.40529
X170 X 0.39365 0.44515 0.40469
X171 X 0.39450 0.45022 0.40431
X172 X 0.39567 0.45523 0.40420
X173 X 0.39718 0.46015 0.40437
X174 X 0.39921 0.46483 0.40505
X175 X 0.40125 0.46951 0.40573
X176 X 0.40350 0.47405 0.40665
X177 X 0.40591 0.47846 0.40775
X178 X 0.40845 0.48275 0.40901
X179 X 0.41108 0.48696 0.41040
X180 X 0.41376 0.49109 0.41189
X181 X 0.41650 0.49516 0.41347
X182 X 0.41926 0.49918 0.41512
X183 X 0.42203 0.50316 0.41683
X184 X 0.42482 0.50711 0.41860
X185 X 0.42761 0.51104 0.42041
X186 X 0.43040 0.51495 0.42226
X187 X 0.43318 0.51885 0.42414
X188 X 0.43595 0.52274 0.42607
X189 X 0.43870 0.52663 0.42802
X190 X 0.44144 0.53051 0.43001
X191 X 0.44415 0.53439 0.43202
X192 X 0.44686 0.53827 0.43405
X193 X 0.44951 0.54216 0.43614
X194 X 0.45217 0.54604 0.43822
X195 X 0.45478 0.54993 0.44037
X196 X 0.45737 0.55381 0.44253
X197 X 0.45993 0.55771 0.44472
X198 X 0.46246 0.56160 0.44694
X199 X 0.46496 0.56549 0.44920
X200 X 0.46742 0.56939 0.45149
X201 X 0.46985 0.57328 0.45382
X202 X 0.47225 0.57718 0.45619
X203 X 0.47460 0.58107 0.45861
X204 X 0.47692 0.58495 0.46107
X205 X 0.47919 0.58883 0.46358
X206 X 0.48142 0.59269 0.46615
X207 X 0.48360 0.59654 0.46879
X208 X 0.48578 0.60039 0.47142
X209 X 0.48786 0.60420 0.47418
X210 X 0.48989 0.60798 0.47703
X211 X 0.49186 0.61171 0.47998
X212 X 0.49377 0.61539 0.48303
X213 X 0.49561 0.61899 0.48621
X214 X 0.49740 0.62250 0.48953
X215 X 0.49912 0.62588 0.49301
X216 X 0.50077 0.62911 0.49666
X217 X 0.50237 0.63216 0.50049
X218 X 0.50390 0.63500 0.50450
X219 X 0.50543 0.63783 0.50852
X220 X 0.50685 0.64022 0.51285
X221 X 0.50823 0.64236 0.51733
X222 X 0.50956 0.64429 0.52191
X223 X 0.51085 0.64603 0.52658
X224 X 0.51212 0.64763 0.53130
X225 X 0.51337 0.64912 0.53607
X226 X 0.51460 0.65053 0.54087
X227 X 0.51582 0.65188 0.54568
X228 X 0.51703 0.65318 0.55051
X229 X 0.51824 0.65446 0.55535
X230 X 0.51945 0.65573 0.56019
X231 X 0.52065 0.65697 0.56504
X232 X 0.52185 0.65819 0.56989
X233 X 0.52306 0.65942 0.57475
X234 X 0.52427 0.66065 0.57960
X235 X 0.52549 0.66188 0.58444
X236 X 0.52672 0.66313 0.58928
X237 X 0.52798 0.66440 0.59411
X238 X 0.52926 0.66569 0.59893
X239 X 0.53059 0.66703 0.60372
X240 X 0.53195 0.66839 0.60849
X241 X 0.53344 0.66989 0.61319
X242 X 0.53561 0.67208 0.61893
X243 X 0.54035 0.67685 0.62137
X244 X 0.54391 0.68042 0.62240
X245 X 0.54749 0.68401 0.62328
X246 X 0.55109 0.68762 0.62401
X247 X 0.55470 0.69123 0.62465
X248 X 0.55832 0.69485 0.62520
X249 X 0.56194 0.69848 0.62569
X250 X 0.56557 0.70211 0.62608
X251 X 0.56919 0.70574 0.62648
X252 X 0.57282 0.70937 0.62682
X253 X 0.57646 0.71301 0.62713
X254 X 0.58009 0.71664 0.62740
X255 X 0.58373 0.72028 0.62763
X256 X 0.58736 0.72392 0.62783
X257 X 0.59100 0.72755 0.62800
X258 X 0.59464 0.73119 0.62814
X259 X 0.59828 0.73483 0.62826
X260 X 0.60193 0.73847 0.62835
X261 X 0.60559 0.74208 0.62843
X262 X 0.60934 0.74561 0.62853
X263 X 0.61383 0.74805 0.62913
Li1 Li 0.38656 0.25000 0.36345
Li2 Li 0.38656 0.75000 0.86345
Li3 Li 0.34034 0.25000 0.86345
Li4 Li 0.34034 0.75000 0.36345
Li5 Li 0.61345 0.25000 0.13656
Li6 Li 0.61345 0.75000 0.09034
Li7 Li 0.11345 0.25000 0.09034
Li8 Li 0.11345 0.75000 0.13656
Li9 Li 0.61345 0.02311 0.36345
Li10 Li 0.61345 0.97689 0.86345
Li11 Li 0.11345 0.02311 0.86345
Li12 Li 0.11345 0.97689 0.36345
Li13 Li 0.61345 0.75000 0.63655
Li14 Li 0.61345 0.25000 0.59034
Li15 Li 0.11345 0.75000 0.59034
Li16 Li 0.11345 0.25000 0.63655
Li17 Li 0.61345 0.52311 0.86345
Li18 Li 0.61345 0.47689 0.36345
Li19 Li 0.11345 0.52311 0.36345
Li20 Li 0.11345 0.47689 0.86345
Li21 Li 0.88655 0.25000 0.86345
Li22 Li 0.88655 0.75000 0.36345
Li23 Li 0.84034 0.25000 0.36345
Li24 Li 0.84034 0.75000 0.86345
P1 P 0.86345 0.50000 0.61345
P2 P 0.86345 0.00000 0.11345
P3 P 0.36345 0.50000 0.11345
P4 P 0.36345 0.00000 0.61345
S1 S 0.97896 0.61552 0.72896
S2 S 0.97896 0.38448 0.49793
S3 S 0.74793 0.61552 0.49793
S4 S 0.74793 0.38448 0.72896
S5 S 0.97896 0.11552 0.22897
S6 S 0.97896 0.88448 0.99793
S7 S 0.74793 0.11552 0.99793
S8 S 0.74793 0.88448 0.22897
S9 S 0.47897 0.61552 0.22897
S10 S 0.47897 0.38448 0.99793
S11 S 0.24792 0.61552 0.99793
S12 S 0.24792 0.38448 0.22897
S13 S 0.47897 0.11552 0.72896
S14 S 0.47897 0.88448 0.49793
S15 S 0.24792 0.11552 0.49793
S16 S 0.24792 0.88448 0.72896
S17 S 0.61345 0.25000 0.36345
S18 S 0.61345 0.75000 0.86345
S19 S 0.11345 0.25000 0.86345
S20 S 0.11345 0.75000 0.36345
Cl1 Cl 0.36345 0.00000 0.11345
Cl2 Cl 0.36345 0.50000 0.61345
Cl3 Cl 0.86345 0.00000 0.61345
Cl4 Cl 0.86345 0.50000 0.11345
#End of findsym-output
